
     RDKit          3D

  6  5  0  0  0  0  0  0  0  0999 V2000
   -0.6674   -0.0146   -0.0226 C   0  0  0  0  0  0  0  0  0  0  0  0
    0.6674    0.0146    0.0226 C   0  0  0  0  0  0  0  0  0  0  0  0
   -1.2632    0.2812    0.8351 H   0  0  0  0  0  0  0  0  0  0  0  0
   -1.1903   -0.3350   -0.9182 H   0  0  0  0  0  0  0  0  0  0  0  0
    1.1903    0.3350    0.9182 H   0  0  0  0  0  0  0  0  0  0  0  0
    1.2632   -0.2812   -0.8351 H   0  0  0  0  0  0  0  0  0  0  0  0
  1  2  2  3
  1  3  1  0
  1  4  1  0
  2  5  1  0
  2  6  1  0
M  END
