
     RDKit          3D

 11 10  0  0  0  0  0  0  0  0999 V2000
    1.2413   -0.2014    0.2312 C   0  0  0  0  0  0  0  0  0  0  0  0
    0.0353    0.3549   -0.5067 C   0  0  0  0  0  0  0  0  0  0  0  0
   -1.2679   -0.0664    0.1511 C   0  0  0  0  0  0  0  0  0  0  0  0
    2.1662    0.1153   -0.2608 H   0  0  0  0  0  0  0  0  0  0  0  0
    1.2673    0.1556    1.2658 H   0  0  0  0  0  0  0  0  0  0  0  0
    1.2217   -1.2958    0.2460 H   0  0  0  0  0  0  0  0  0  0  0  0
    0.0949    1.4486   -0.5306 H   0  0  0  0  0  0  0  0  0  0  0  0
    0.0496    0.0050   -1.5448 H   0  0  0  0  0  0  0  0  0  0  0  0
   -1.3668   -1.1566    0.1634 H   0  0  0  0  0  0  0  0  0  0  0  0
   -1.3212    0.2949    1.1831 H   0  0  0  0  0  0  0  0  0  0  0  0
   -2.1204    0.3459   -0.3977 H   0  0  0  0  0  0  0  0  0  0  0  0
  1  2  1  0
  2  3  1  0
  1  4  1  0
  1  5  1  0
  1  6  1  0
  2  7  1  0
  2  8  1  0
  3  9  1  0
  3 10  1  0
  3 11  1  0
M  END
