
     RDKit          3D

  9  8  0  0  0  0  0  0  0  0999 V2000
    1.1013   -0.0857    0.2645 C   0  0  0  0  0  0  0  0  0  0  0  0
   -0.1667    0.3439   -0.3973 C   0  0  0  0  0  0  0  0  0  0  0  0
   -1.3782   -0.1273   -0.0778 C   0  0  0  0  0  0  0  0  0  0  0  0
    0.9275   -0.8335    1.0448 H   0  0  0  0  0  0  0  0  0  0  0  0
    1.7810   -0.5170   -0.4766 H   0  0  0  0  0  0  0  0  0  0  0  0
    1.5938    0.7776    0.7224 H   0  0  0  0  0  0  0  0  0  0  0  0
   -0.0785    1.0874   -1.1864 H   0  0  0  0  0  0  0  0  0  0  0  0
   -2.2651    0.2243   -0.5960 H   0  0  0  0  0  0  0  0  0  0  0  0
   -1.5150   -0.8697    0.7024 H   0  0  0  0  0  0  0  0  0  0  0  0
  1  2  1  0
  2  3  2  3
  1  4  1  0
  1  5  1  0
  1  6  1  0
  2  7  1  0
  3  8  1  0
  3  9  1  0
M  END
