
     RDKit          3D

  8  7  0  0  0  0  0  0  0  0999 V2000
   -0.7631    0.1908   -0.0705 C   0  0  0  0  0  0  0  0  0  0  0  0
    0.6632   -0.3117    0.0090 C   0  0  0  0  0  0  0  0  0  0  0  0
    1.7329    0.9507    0.6562 Cl  0  0  0  0  0  0  0  0  0  0  0  0
   -1.1400    0.4725    0.9182 H   0  0  0  0  0  0  0  0  0  0  0  0
   -1.4167   -0.5911   -0.4698 H   0  0  0  0  0  0  0  0  0  0  0  0
   -0.8403    1.0626   -0.7285 H   0  0  0  0  0  0  0  0  0  0  0  0
    1.0321   -0.5914   -0.9818 H   0  0  0  0  0  0  0  0  0  0  0  0
    0.7319   -1.1824    0.6672 H   0  0  0  0  0  0  0  0  0  0  0  0
  1  2  1  0
  2  3  1  0
  1  4  1  0
  1  5  1  0
  1  6  1  0
  2  7  1  0
  2  8  1  0
M  END
