
     RDKit          3D

 11 10  0  0  0  0  0  0  0  0999 V2000
    1.2413   -0.2014    0.2312 C   0  0  0  0  0  0  0  0  0  0  0  0
    0.0353    0.3549   -0.5067 C   0  0  0  0  0  0  0  0  0  0  0  0
   -1.2679   -0.0664    0.1511 C   0  0  0  0  0  0  0  0  0  0  0  0
    2.1662    0.1153   -0.2608 H   0  0  0  0  0  0  0  0  0  0  0  0
    1.2673    0.1556    1.2658 H   0  0  0  0  0  0  0  0  0  0  0  0
    1.2217   -1.2958    0.2460 H   0  0  0  0  0  0  0  0  0  0  0  0
    0.0949    1.4486   -0.5306 H   0  0  0  0  0  0  0  0  0  0  0  0
    0.0496    0.0050   -1.5448 H   0  0  0  0  0  0  0  0  0  0  0  0
   -1.3668   -1.1566    0.1634 H   0  0  0  0  0  0  0  0  0  0  0  0
   -1.3212    0.2949    1.1831 H   0  0  0  0  0  0  0  0  0  0  0  0
   -2.1204    0.3459   -0.3977 H   0  0  0  0  0  0  0  0  0  0  0  0
  1  2  1  0
  2  3  1  0
  1  4  1  0
  1  5  1  0
  1  6  1  0
  2  7  1  0
  2  8  1  0
  3  9  1  0
  3 10  1  0
  3 11  1  0
M  END

$$$$

     RDKit          3D

  9  8  0  0  0  0  0  0  0  0999 V2000
    1.1013   -0.0857    0.2645 C   0  0  0  0  0  0  0  0  0  0  0  0
   -0.1667    0.3439   -0.3973 C   0  0  0  0  0  0  0  0  0  0  0  0
   -1.3782   -0.1273   -0.0778 C   0  0  0  0  0  0  0  0  0  0  0  0
    0.9275   -0.8335    1.0448 H   0  0  0  0  0  0  0  0  0  0  0  0
    1.7810   -0.5170   -0.4766 H   0  0  0  0  0  0  0  0  0  0  0  0
    1.5938    0.7776    0.7224 H   0  0  0  0  0  0  0  0  0  0  0  0
   -0.0785    1.0874   -1.1864 H   0  0  0  0  0  0  0  0  0  0  0  0
   -2.2651    0.2243   -0.5960 H   0  0  0  0  0  0  0  0  0  0  0  0
   -1.5150   -0.8697    0.7024 H   0  0  0  0  0  0  0  0  0  0  0  0
  1  2  1  0
  2  3  2  3
  1  4  1  0
  1  5  1  0
  1  6  1  0
  2  7  1  0
  3  8  1  0
  3  9  1  0
M  END

$$$$

     RDKit          3D

  6  5  0  0  0  0  0  0  0  0999 V2000
   -0.6674   -0.0146   -0.0226 C   0  0  0  0  0  0  0  0  0  0  0  0
    0.6674    0.0146    0.0226 C   0  0  0  0  0  0  0  0  0  0  0  0
   -1.2632    0.2812    0.8351 H   0  0  0  0  0  0  0  0  0  0  0  0
   -1.1903   -0.3350   -0.9182 H   0  0  0  0  0  0  0  0  0  0  0  0
    1.1903    0.3350    0.9182 H   0  0  0  0  0  0  0  0  0  0  0  0
    1.2632   -0.2812   -0.8351 H   0  0  0  0  0  0  0  0  0  0  0  0
  1  2  2  3
  1  3  1  0
  1  4  1  0
  2  5  1  0
  2  6  1  0
M  END

$$$$

     RDKit          3D

  8  7  0  0  0  0  0  0  0  0999 V2000
   -0.7631    0.1908   -0.0705 C   0  0  0  0  0  0  0  0  0  0  0  0
    0.6632   -0.3117    0.0090 C   0  0  0  0  0  0  0  0  0  0  0  0
    1.7329    0.9507    0.6562 Cl  0  0  0  0  0  0  0  0  0  0  0  0
   -1.1400    0.4725    0.9182 H   0  0  0  0  0  0  0  0  0  0  0  0
   -1.4167   -0.5911   -0.4698 H   0  0  0  0  0  0  0  0  0  0  0  0
   -0.8403    1.0626   -0.7285 H   0  0  0  0  0  0  0  0  0  0  0  0
    1.0321   -0.5914   -0.9818 H   0  0  0  0  0  0  0  0  0  0  0  0
    0.7319   -1.1824    0.6672 H   0  0  0  0  0  0  0  0  0  0  0  0
  1  2  1  0
  2  3  1  0
  1  4  1  0
  1  5  1  0
  1  6  1  0
  2  7  1  0
  2  8  1  0
M  END

$$$$
