
     RDKit          3D

 11 10  0  0  0  0  0  0  0  0999 V2000
   -1.2411    0.2257   -0.2089 C   0  0  0  0  0  0  0  0  0  0  0  0
   -0.0185   -0.2017    0.5855 C   0  0  0  0  0  0  0  0  0  0  0  0
    1.2550   -0.0735   -0.2330 C   0  0  0  0  0  0  0  0  0  0  0  0
   -2.1442    0.1246    0.4011 H   0  0  0  0  0  0  0  0  0  0  0  0
   -1.1588    1.2711   -0.5235 H   0  0  0  0  0  0  0  0  0  0  0  0
   -1.3639   -0.3934   -1.1033 H   0  0  0  0  0  0  0  0  0  0  0  0
   -0.1400   -1.2408    0.9110 H   0  0  0  0  0  0  0  0  0  0  0  0
    0.0641    0.4146    1.4876 H   0  0  0  0  0  0  0  0  0  0  0  0
    1.4162    0.9623   -0.5483 H   0  0  0  0  0  0  0  0  0  0  0  0
    2.1201   -0.3867    0.3599 H   0  0  0  0  0  0  0  0  0  0  0  0
    1.2110   -0.7022   -1.1281 H   0  0  0  0  0  0  0  0  0  0  0  0
  1  2  1  0
  2  3  1  0
  1  4  1  0
  1  5  1  0
  1  6  1  0
  2  7  1  0
  2  8  1  0
  3  9  1  0
  3 10  1  0
  3 11  1  0
M  END
