
     RDKit          3D

  9  8  0  0  0  0  0  0  0  0999 V2000
   -0.4713    0.3516    0.9718 C   0  0  0  0  0  0  0  0  0  0  0  0
    0.5289    0.1092   -0.1104 C   0  0  0  0  0  0  0  0  0  0  0  0
    0.2654   -0.5551   -1.2422 C   0  0  0  0  0  0  0  0  0  0  0  0
   -1.4497   -0.0777    0.7339 H   0  0  0  0  0  0  0  0  0  0  0  0
   -0.1219   -0.0930    1.9087 H   0  0  0  0  0  0  0  0  0  0  0  0
   -0.5989    1.4272    1.1274 H   0  0  0  0  0  0  0  0  0  0  0  0
    1.5290    0.5058    0.0507 H   0  0  0  0  0  0  0  0  0  0  0  0
    1.0358   -0.6995   -1.9935 H   0  0  0  0  0  0  0  0  0  0  0  0
   -0.7174   -0.9685   -1.4465 H   0  0  0  0  0  0  0  0  0  0  0  0
  1  2  1  0
  2  3  2  3
  1  4  1  0
  1  5  1  0
  1  6  1  0
  2  7  1  0
  3  8  1  0
  3  9  1  0
M  END
