
     RDKit          3D

 11 10  0  0  0  0  0  0  0  0999 V2000
   -1.2411    0.2257   -0.2089 C   0  0  0  0  0  0  0  0  0  0  0  0
   -0.0185   -0.2017    0.5855 C   0  0  0  0  0  0  0  0  0  0  0  0
    1.2550   -0.0735   -0.2330 C   0  0  0  0  0  0  0  0  0  0  0  0
   -2.1442    0.1246    0.4011 H   0  0  0  0  0  0  0  0  0  0  0  0
   -1.1588    1.2711   -0.5235 H   0  0  0  0  0  0  0  0  0  0  0  0
   -1.3639   -0.3934   -1.1033 H   0  0  0  0  0  0  0  0  0  0  0  0
   -0.1400   -1.2408    0.9110 H   0  0  0  0  0  0  0  0  0  0  0  0
    0.0641    0.4146    1.4876 H   0  0  0  0  0  0  0  0  0  0  0  0
    1.4162    0.9623   -0.5483 H   0  0  0  0  0  0  0  0  0  0  0  0
    2.1201   -0.3867    0.3599 H   0  0  0  0  0  0  0  0  0  0  0  0
    1.2110   -0.7022   -1.1281 H   0  0  0  0  0  0  0  0  0  0  0  0
  1  2  1  0
  2  3  1  0
  1  4  1  0
  1  5  1  0
  1  6  1  0
  2  7  1  0
  2  8  1  0
  3  9  1  0
  3 10  1  0
  3 11  1  0
M  END

$$$$

     RDKit          3D

  9  8  0  0  0  0  0  0  0  0999 V2000
   -0.4713    0.3516    0.9718 C   0  0  0  0  0  0  0  0  0  0  0  0
    0.5289    0.1092   -0.1104 C   0  0  0  0  0  0  0  0  0  0  0  0
    0.2654   -0.5551   -1.2422 C   0  0  0  0  0  0  0  0  0  0  0  0
   -1.4497   -0.0777    0.7339 H   0  0  0  0  0  0  0  0  0  0  0  0
   -0.1219   -0.0930    1.9087 H   0  0  0  0  0  0  0  0  0  0  0  0
   -0.5989    1.4272    1.1274 H   0  0  0  0  0  0  0  0  0  0  0  0
    1.5290    0.5058    0.0507 H   0  0  0  0  0  0  0  0  0  0  0  0
    1.0358   -0.6995   -1.9935 H   0  0  0  0  0  0  0  0  0  0  0  0
   -0.7174   -0.9685   -1.4465 H   0  0  0  0  0  0  0  0  0  0  0  0
  1  2  1  0
  2  3  2  3
  1  4  1  0
  1  5  1  0
  1  6  1  0
  2  7  1  0
  3  8  1  0
  3  9  1  0
M  END

$$$$
