
     RDKit          3D

  9  8  0  0  0  0  0  0  0  0999 V2000
   -1.1235    0.0061    0.0565 C   0  0  0  0  0  0  0  0  0  0  0  0
    0.2906    0.4979    0.0545 C   0  0  0  0  0  0  0  0  0  0  0  0
    1.3137   -0.3431   -0.1125 C   0  0  0  0  0  0  0  0  0  0  0  0
   -1.8165    0.8597    0.2089 H   0  0  0  0  0  0  0  0  0  0  0  0
   -1.3580   -0.4777   -0.9152 H   0  0  0  0  0  0  0  0  0  0  0  0
   -1.2692   -0.7260    0.8787 H   0  0  0  0  0  0  0  0  0  0  0  0
    0.4866    1.5572    0.1914 H   0  0  0  0  0  0  0  0  0  0  0  0
    1.1446   -1.4069   -0.2514 H   0  0  0  0  0  0  0  0  0  0  0  0
    2.3317    0.0328   -0.1109 H   0  0  0  0  0  0  0  0  0  0  0  0
  1  2  1  0
  2  3  2  3
  1  4  1  0
  1  5  1  0
  1  6  1  0
  2  7  1  0
  3  8  1  0
  3  9  1  0
M  END
