
     RDKit          3D

 24 24  0  0  0  0  0  0  0  0999 V2000
   -1.1775   -1.6780   -0.4565 C   0  0  0  0  0  0  0  0  0  0  0  0
   -0.8325   -0.1807   -0.4468 C   0  0  0  0  0  0  0  0  0  0  0  0
    0.6571    0.0160   -0.2295 C   0  0  0  0  0  0  0  0  0  0  0  0
    1.2804   -0.4156    0.9582 C   0  0  0  0  0  0  0  0  0  0  0  0
    2.6528   -0.2268    1.1463 C   0  0  0  0  0  0  0  0  0  0  0  0
    3.4174    0.3930    0.1555 C   0  0  0  0  0  0  0  0  0  0  0  0
    2.8109    0.8258   -1.0259 C   0  0  0  0  0  0  0  0  0  0  0  0
    1.4387    0.6397   -1.2196 C   0  0  0  0  0  0  0  0  0  0  0  0
   -1.6399    0.5992    0.6153 C   0  0  0  0  0  0  0  0  0  0  0  0
   -3.1288    0.6891    0.2790 C   0  0  0  0  0  0  0  0  0  0  0  0
   -2.2198   -1.8344   -0.8040 H   0  0  0  0  0  0  0  0  0  0  0  0
   -0.5064   -2.2194   -1.1576 H   0  0  0  0  0  0  0  0  0  0  0  0
   -1.0685   -2.1205    0.5563 H   0  0  0  0  0  0  0  0  0  0  0  0
   -1.1059    0.2237   -1.4475 H   0  0  0  0  0  0  0  0  0  0  0  0
    0.7061   -0.8976    1.7387 H   0  0  0  0  0  0  0  0  0  0  0  0
    3.1239   -0.5615    2.0616 H   0  0  0  0  0  0  0  0  0  0  0  0
    4.4797    0.5382    0.3032 H   0  0  0  0  0  0  0  0  0  0  0  0
    3.4046    1.3063   -1.7928 H   0  0  0  0  0  0  0  0  0  0  0  0
    0.9883    0.9831   -2.1425 H   0  0  0  0  0  0  0  0  0  0  0  0
   -1.2439    1.6367    0.6820 H   0  0  0  0  0  0  0  0  0  0  0  0
   -1.5237    0.1287    1.6158 H   0  0  0  0  0  0  0  0  0  0  0  0
   -3.6047   -0.3120    0.3295 H   0  0  0  0  0  0  0  0  0  0  0  0
   -3.2742    1.1186   -0.7349 H   0  0  0  0  0  0  0  0  0  0  0  0
   -3.6341    1.3482    1.0162 H   0  0  0  0  0  0  0  0  0  0  0  0
  1  2  1  0
  2  3  1  0
  3  4  2  0
  4  5  1  0
  5  6  2  0
  6  7  1  0
  7  8  2  0
  2  9  1  0
  9 10  1  0
  8  3  1  0
  1 11  1  0
  1 12  1  0
  1 13  1  0
  2 14  1  0
  4 15  1  0
  5 16  1  0
  6 17  1  0
  7 18  1  0
  8 19  1  0
  9 20  1  0
  9 21  1  0
 10 22  1  0
 10 23  1  0
 10 24  1  0
M  END
