
     RDKit          3D

 27 27  0  0  0  0  0  0  0  0999 V2000
   -3.6733    0.9301    0.5098 C   0  0  0  0  0  0  0  0  0  0  0  0
   -3.3275   -0.5454    0.3111 C   0  0  0  0  0  0  0  0  0  0  0  0
   -2.1555   -0.7557   -0.6598 C   0  0  0  0  0  0  0  0  0  0  0  0
   -0.8112   -0.3084   -0.0672 C   0  0  0  0  0  0  0  0  0  0  0  0
    0.3457   -0.6463   -1.0139 C   0  0  0  0  0  0  0  0  0  0  0  0
    1.6571   -0.1936   -0.4296 C   0  0  0  0  0  0  0  0  0  0  0  0
    2.1315    1.1060   -0.6748 C   0  0  0  0  0  0  0  0  0  0  0  0
    3.3337    1.5360   -0.1043 C   0  0  0  0  0  0  0  0  0  0  0  0
    4.0643    0.6768    0.7212 C   0  0  0  0  0  0  0  0  0  0  0  0
    3.5918   -0.6127    0.9809 C   0  0  0  0  0  0  0  0  0  0  0  0
    2.3901   -1.0467    0.4125 C   0  0  0  0  0  0  0  0  0  0  0  0
   -4.5964    1.0131    1.1213 H   0  0  0  0  0  0  0  0  0  0  0  0
   -3.8531    1.4230   -0.4692 H   0  0  0  0  0  0  0  0  0  0  0  0
   -2.8569    1.4570    1.0455 H   0  0  0  0  0  0  0  0  0  0  0  0
   -4.2221   -1.0593   -0.1028 H   0  0  0  0  0  0  0  0  0  0  0  0
   -3.0985   -1.0103    1.2945 H   0  0  0  0  0  0  0  0  0  0  0  0
   -2.0995   -1.8404   -0.8989 H   0  0  0  0  0  0  0  0  0  0  0  0
   -2.3510   -0.2109   -1.6096 H   0  0  0  0  0  0  0  0  0  0  0  0
   -0.6478   -0.8190    0.9076 H   0  0  0  0  0  0  0  0  0  0  0  0
   -0.8250    0.7893    0.1048 H   0  0  0  0  0  0  0  0  0  0  0  0
    0.1820   -0.1524   -1.9972 H   0  0  0  0  0  0  0  0  0  0  0  0
    0.3749   -1.7433   -1.1956 H   0  0  0  0  0  0  0  0  0  0  0  0
    1.5702    1.7847   -1.3050 H   0  0  0  0  0  0  0  0  0  0  0  0
    3.6972    2.5366   -0.2994 H   0  0  0  0  0  0  0  0  0  0  0  0
    4.9939    1.0116    1.1630 H   0  0  0  0  0  0  0  0  0  0  0  0
    4.1551   -1.2749    1.6257 H   0  0  0  0  0  0  0  0  0  0  0  0
    2.0302   -2.0450    0.6292 H   0  0  0  0  0  0  0  0  0  0  0  0
  1  2  1  0
  2  3  1  0
  3  4  1  0
  4  5  1  0
  5  6  1  0
  6  7  2  0
  7  8  1  0
  8  9  2  0
  9 10  1  0
 10 11  2  0
 11  6  1  0
  1 12  1  0
  1 13  1  0
  1 14  1  0
  2 15  1  0
  2 16  1  0
  3 17  1  0
  3 18  1  0
  4 19  1  0
  4 20  1  0
  5 21  1  0
  5 22  1  0
  7 23  1  0
  8 24  1  0
  9 25  1  0
 10 26  1  0
 11 27  1  0
M  END
