
     RDKit          3D

  8  7  0  0  0  0  0  0  0  0999 V2000
   -0.7831    0.1008    0.0708 C   0  0  0  0  0  0  0  0  0  0  0  0
    0.6941   -0.2368   -0.0599 C   0  0  0  0  0  0  0  0  0  0  0  0
    1.6587    1.2561   -0.1786 Cl  0  0  0  0  0  0  0  0  0  0  0  0
   -0.9562    0.7073    0.9850 H   0  0  0  0  0  0  0  0  0  0  0  0
   -1.1238    0.6722   -0.8185 H   0  0  0  0  0  0  0  0  0  0  0  0
   -1.3750   -0.8358    0.1441 H   0  0  0  0  0  0  0  0  0  0  0  0
    1.0263   -0.8143    0.8284 H   0  0  0  0  0  0  0  0  0  0  0  0
    0.8591   -0.8493   -0.9713 H   0  0  0  0  0  0  0  0  0  0  0  0
  1  2  1  0
  2  3  1  0
  1  4  1  0
  1  5  1  0
  1  6  1  0
  2  7  1  0
  2  8  1  0
M  END
