
     RDKit          3D

  6  5  0  0  0  0  0  0  0  0999 V2000
   -0.4948    0.3183   -0.3110 C   0  0  0  0  0  0  0  0  0  0  0  0
    0.4948   -0.3183    0.3110 C   0  0  0  0  0  0  0  0  0  0  0  0
   -0.6881    1.3654   -0.1015 H   0  0  0  0  0  0  0  0  0  0  0  0
   -1.1143   -0.2059   -1.0314 H   0  0  0  0  0  0  0  0  0  0  0  0
    1.1143    0.2059    1.0314 H   0  0  0  0  0  0  0  0  0  0  0  0
    0.6881   -1.3654    0.1015 H   0  0  0  0  0  0  0  0  0  0  0  0
  1  2  2  3
  1  3  1  0
  1  4  1  0
  2  5  1  0
  2  6  1  0
M  END
