
     RDKit          3D

 27 27  0  0  0  0  0  0  0  0999 V2000
   -3.6733    0.9301    0.5098 C   0  0  0  0  0  0  0  0  0  0  0  0
   -3.3275   -0.5454    0.3111 C   0  0  0  0  0  0  0  0  0  0  0  0
   -2.1555   -0.7557   -0.6598 C   0  0  0  0  0  0  0  0  0  0  0  0
   -0.8112   -0.3084   -0.0672 C   0  0  0  0  0  0  0  0  0  0  0  0
    0.3457   -0.6463   -1.0139 C   0  0  0  0  0  0  0  0  0  0  0  0
    1.6571   -0.1936   -0.4296 C   0  0  0  0  0  0  0  0  0  0  0  0
    2.1315    1.1060   -0.6748 C   0  0  0  0  0  0  0  0  0  0  0  0
    3.3337    1.5360   -0.1043 C   0  0  0  0  0  0  0  0  0  0  0  0
    4.0643    0.6768    0.7212 C   0  0  0  0  0  0  0  0  0  0  0  0
    3.5918   -0.6127    0.9809 C   0  0  0  0  0  0  0  0  0  0  0  0
    2.3901   -1.0467    0.4125 C   0  0  0  0  0  0  0  0  0  0  0  0
   -4.5964    1.0131    1.1213 H   0  0  0  0  0  0  0  0  0  0  0  0
   -3.8531    1.4230   -0.4692 H   0  0  0  0  0  0  0  0  0  0  0  0
   -2.8569    1.4570    1.0455 H   0  0  0  0  0  0  0  0  0  0  0  0
   -4.2221   -1.0593   -0.1028 H   0  0  0  0  0  0  0  0  0  0  0  0
   -3.0985   -1.0103    1.2945 H   0  0  0  0  0  0  0  0  0  0  0  0
   -2.0995   -1.8404   -0.8989 H   0  0  0  0  0  0  0  0  0  0  0  0
   -2.3510   -0.2109   -1.6096 H   0  0  0  0  0  0  0  0  0  0  0  0
   -0.6478   -0.8190    0.9076 H   0  0  0  0  0  0  0  0  0  0  0  0
   -0.8250    0.7893    0.1048 H   0  0  0  0  0  0  0  0  0  0  0  0
    0.1820   -0.1524   -1.9972 H   0  0  0  0  0  0  0  0  0  0  0  0
    0.3749   -1.7433   -1.1956 H   0  0  0  0  0  0  0  0  0  0  0  0
    1.5702    1.7847   -1.3050 H   0  0  0  0  0  0  0  0  0  0  0  0
    3.6972    2.5366   -0.2994 H   0  0  0  0  0  0  0  0  0  0  0  0
    4.9939    1.0116    1.1630 H   0  0  0  0  0  0  0  0  0  0  0  0
    4.1551   -1.2749    1.6257 H   0  0  0  0  0  0  0  0  0  0  0  0
    2.0302   -2.0450    0.6292 H   0  0  0  0  0  0  0  0  0  0  0  0
  1  2  1  0
  2  3  1  0
  3  4  1  0
  4  5  1  0
  5  6  1  0
  6  7  2  0
  7  8  1  0
  8  9  2  0
  9 10  1  0
 10 11  2  0
 11  6  1  0
  1 12  1  0
  1 13  1  0
  1 14  1  0
  2 15  1  0
  2 16  1  0
  3 17  1  0
  3 18  1  0
  4 19  1  0
  4 20  1  0
  5 21  1  0
  5 22  1  0
  7 23  1  0
  8 24  1  0
  9 25  1  0
 10 26  1  0
 11 27  1  0
M  END

$$$$

     RDKit          3D

  9  8  0  0  0  0  0  0  0  0999 V2000
   -1.1235    0.0061    0.0565 C   0  0  0  0  0  0  0  0  0  0  0  0
    0.2906    0.4979    0.0545 C   0  0  0  0  0  0  0  0  0  0  0  0
    1.3137   -0.3431   -0.1125 C   0  0  0  0  0  0  0  0  0  0  0  0
   -1.8165    0.8597    0.2089 H   0  0  0  0  0  0  0  0  0  0  0  0
   -1.3580   -0.4777   -0.9152 H   0  0  0  0  0  0  0  0  0  0  0  0
   -1.2692   -0.7260    0.8787 H   0  0  0  0  0  0  0  0  0  0  0  0
    0.4866    1.5572    0.1914 H   0  0  0  0  0  0  0  0  0  0  0  0
    1.1446   -1.4069   -0.2514 H   0  0  0  0  0  0  0  0  0  0  0  0
    2.3317    0.0328   -0.1109 H   0  0  0  0  0  0  0  0  0  0  0  0
  1  2  1  0
  2  3  2  3
  1  4  1  0
  1  5  1  0
  1  6  1  0
  2  7  1  0
  3  8  1  0
  3  9  1  0
M  END

$$$$

     RDKit          3D

  6  5  0  0  0  0  0  0  0  0999 V2000
   -0.4948    0.3183   -0.3110 C   0  0  0  0  0  0  0  0  0  0  0  0
    0.4948   -0.3183    0.3110 C   0  0  0  0  0  0  0  0  0  0  0  0
   -0.6881    1.3654   -0.1015 H   0  0  0  0  0  0  0  0  0  0  0  0
   -1.1143   -0.2059   -1.0314 H   0  0  0  0  0  0  0  0  0  0  0  0
    1.1143    0.2059    1.0314 H   0  0  0  0  0  0  0  0  0  0  0  0
    0.6881   -1.3654    0.1015 H   0  0  0  0  0  0  0  0  0  0  0  0
  1  2  2  3
  1  3  1  0
  1  4  1  0
  2  5  1  0
  2  6  1  0
M  END

$$$$

     RDKit          3D

  8  7  0  0  0  0  0  0  0  0999 V2000
   -0.7831    0.1008    0.0708 C   0  0  0  0  0  0  0  0  0  0  0  0
    0.6941   -0.2368   -0.0599 C   0  0  0  0  0  0  0  0  0  0  0  0
    1.6587    1.2561   -0.1786 Cl  0  0  0  0  0  0  0  0  0  0  0  0
   -0.9562    0.7073    0.9850 H   0  0  0  0  0  0  0  0  0  0  0  0
   -1.1238    0.6722   -0.8185 H   0  0  0  0  0  0  0  0  0  0  0  0
   -1.3750   -0.8358    0.1441 H   0  0  0  0  0  0  0  0  0  0  0  0
    1.0263   -0.8143    0.8284 H   0  0  0  0  0  0  0  0  0  0  0  0
    0.8591   -0.8493   -0.9713 H   0  0  0  0  0  0  0  0  0  0  0  0
  1  2  1  0
  2  3  1  0
  1  4  1  0
  1  5  1  0
  1  6  1  0
  2  7  1  0
  2  8  1  0
M  END

$$$$

     RDKit          3D

 24 24  0  0  0  0  0  0  0  0999 V2000
   -1.1775   -1.6780   -0.4565 C   0  0  0  0  0  0  0  0  0  0  0  0
   -0.8325   -0.1807   -0.4468 C   0  0  0  0  0  0  0  0  0  0  0  0
    0.6571    0.0160   -0.2295 C   0  0  0  0  0  0  0  0  0  0  0  0
    1.2804   -0.4156    0.9582 C   0  0  0  0  0  0  0  0  0  0  0  0
    2.6528   -0.2268    1.1463 C   0  0  0  0  0  0  0  0  0  0  0  0
    3.4174    0.3930    0.1555 C   0  0  0  0  0  0  0  0  0  0  0  0
    2.8109    0.8258   -1.0259 C   0  0  0  0  0  0  0  0  0  0  0  0
    1.4387    0.6397   -1.2196 C   0  0  0  0  0  0  0  0  0  0  0  0
   -1.6399    0.5992    0.6153 C   0  0  0  0  0  0  0  0  0  0  0  0
   -3.1288    0.6891    0.2790 C   0  0  0  0  0  0  0  0  0  0  0  0
   -2.2198   -1.8344   -0.8040 H   0  0  0  0  0  0  0  0  0  0  0  0
   -0.5064   -2.2194   -1.1576 H   0  0  0  0  0  0  0  0  0  0  0  0
   -1.0685   -2.1205    0.5563 H   0  0  0  0  0  0  0  0  0  0  0  0
   -1.1059    0.2237   -1.4475 H   0  0  0  0  0  0  0  0  0  0  0  0
    0.7061   -0.8976    1.7387 H   0  0  0  0  0  0  0  0  0  0  0  0
    3.1239   -0.5615    2.0616 H   0  0  0  0  0  0  0  0  0  0  0  0
    4.4797    0.5382    0.3032 H   0  0  0  0  0  0  0  0  0  0  0  0
    3.4046    1.3063   -1.7928 H   0  0  0  0  0  0  0  0  0  0  0  0
    0.9883    0.9831   -2.1425 H   0  0  0  0  0  0  0  0  0  0  0  0
   -1.2439    1.6367    0.6820 H   0  0  0  0  0  0  0  0  0  0  0  0
   -1.5237    0.1287    1.6158 H   0  0  0  0  0  0  0  0  0  0  0  0
   -3.6047   -0.3120    0.3295 H   0  0  0  0  0  0  0  0  0  0  0  0
   -3.2742    1.1186   -0.7349 H   0  0  0  0  0  0  0  0  0  0  0  0
   -3.6341    1.3482    1.0162 H   0  0  0  0  0  0  0  0  0  0  0  0
  1  2  1  0
  2  3  1  0
  3  4  2  0
  4  5  1  0
  5  6  2  0
  6  7  1  0
  7  8  2  0
  2  9  1  0
  9 10  1  0
  8  3  1  0
  1 11  1  0
  1 12  1  0
  1 13  1  0
  2 14  1  0
  4 15  1  0
  5 16  1  0
  6 17  1  0
  7 18  1  0
  8 19  1  0
  9 20  1  0
  9 21  1  0
 10 22  1  0
 10 23  1  0
 10 24  1  0
M  END

$$$$
