
     RDKit          3D

 11 10  0  0  0  0  0  0  0  0999 V2000
    1.2106   -0.1633   -0.3777 C   0  0  0  0  0  0  0  0  0  0  0  0
    0.0398   -0.1833    0.5905 C   0  0  0  0  0  0  0  0  0  0  0  0
   -1.2407    0.3016   -0.0679 C   0  0  0  0  0  0  0  0  0  0  0  0
    1.3969    0.8502   -0.7471 H   0  0  0  0  0  0  0  0  0  0  0  0
    2.1197   -0.5163    0.1192 H   0  0  0  0  0  0  0  0  0  0  0  0
    1.0194   -0.8128   -1.2379 H   0  0  0  0  0  0  0  0  0  0  0  0
   -0.1061   -1.2024    0.9654 H   0  0  0  0  0  0  0  0  0  0  0  0
    0.2693    0.4515    1.4535 H   0  0  0  0  0  0  0  0  0  0  0  0
   -2.0679    0.2780    0.6483 H   0  0  0  0  0  0  0  0  0  0  0  0
   -1.5093   -0.3331   -0.9184 H   0  0  0  0  0  0  0  0  0  0  0  0
   -1.1318    1.3298   -0.4276 H   0  0  0  0  0  0  0  0  0  0  0  0
  1  2  1  0
  2  3  1  0
  1  4  1  0
  1  5  1  0
  1  6  1  0
  2  7  1  0
  2  8  1  0
  3  9  1  0
  3 10  1  0
  3 11  1  0
M  END
