
     RDKit          3D

  6  5  0  0  0  0  0  0  0  0999 V2000
    0.6638   -0.0121    0.0732 C   0  0  0  0  0  0  0  0  0  0  0  0
   -0.6638    0.0121   -0.0732 C   0  0  0  0  0  0  0  0  0  0  0  0
    1.1936   -0.9478    0.2218 H   0  0  0  0  0  0  0  0  0  0  0  0
    1.2467    0.9031    0.0472 H   0  0  0  0  0  0  0  0  0  0  0  0
   -1.2467   -0.9031   -0.0472 H   0  0  0  0  0  0  0  0  0  0  0  0
   -1.1936    0.9478   -0.2218 H   0  0  0  0  0  0  0  0  0  0  0  0
  1  2  2  3
  1  3  1  0
  1  4  1  0
  2  5  1  0
  2  6  1  0
M  END
