
     RDKit          3D

  9  8  0  0  0  0  0  0  0  0999 V2000
   -0.9670    0.5851    0.1130 C   0  0  0  0  0  0  0  0  0  0  0  0
    0.1634   -0.1781   -0.4955 C   0  0  0  0  0  0  0  0  0  0  0  0
    1.1980   -0.6688    0.1977 C   0  0  0  0  0  0  0  0  0  0  0  0
   -0.8534    0.6988    1.1957 H   0  0  0  0  0  0  0  0  0  0  0  0
   -1.9120    0.0679   -0.0790 H   0  0  0  0  0  0  0  0  0  0  0  0
   -1.0243    1.5835   -0.3312 H   0  0  0  0  0  0  0  0  0  0  0  0
    0.1245   -0.3343   -1.5713 H   0  0  0  0  0  0  0  0  0  0  0  0
    1.2795   -0.5377    1.2723 H   0  0  0  0  0  0  0  0  0  0  0  0
    1.9913   -1.2165   -0.3018 H   0  0  0  0  0  0  0  0  0  0  0  0
  1  2  1  0
  2  3  2  3
  1  4  1  0
  1  5  1  0
  1  6  1  0
  2  7  1  0
  3  8  1  0
  3  9  1  0
M  END
