
     RDKit          3D

  8  7  0  0  0  0  0  0  0  0999 V2000
   -0.7841   -0.0944   -0.0075 C   0  0  0  0  0  0  0  0  0  0  0  0
    0.6983    0.1890    0.1172 C   0  0  0  0  0  0  0  0  0  0  0  0
    1.6205   -0.8017   -1.0337 Cl  0  0  0  0  0  0  0  0  0  0  0  0
   -1.3464    0.5188    0.7038 H   0  0  0  0  0  0  0  0  0  0  0  0
   -1.0061   -1.1454    0.2048 H   0  0  0  0  0  0  0  0  0  0  0  0
   -1.1488    0.1372   -1.0136 H   0  0  0  0  0  0  0  0  0  0  0  0
    1.0547   -0.0440    1.1245 H   0  0  0  0  0  0  0  0  0  0  0  0
    0.9118    1.2403   -0.0956 H   0  0  0  0  0  0  0  0  0  0  0  0
  1  2  1  0
  2  3  1  0
  1  4  1  0
  1  5  1  0
  1  6  1  0
  2  7  1  0
  2  8  1  0
M  END
