
     RDKit          3D

 27 27  0  0  0  0  0  0  0  0999 V2000
    3.2913    0.9500   -0.4165 C   0  0  0  0  0  0  0  0  0  0  0  0
    3.1331   -0.1866    0.5812 C   0  0  0  0  0  0  0  0  0  0  0  0
    2.1896   -1.2933    0.1042 C   0  0  0  0  0  0  0  0  0  0  0  0
    0.7549   -0.8552   -0.2060 C   0  0  0  0  0  0  0  0  0  0  0  0
    0.0299   -0.2539    1.0004 C   0  0  0  0  0  0  0  0  0  0  0  0
   -1.4111    0.0604    0.6809 C   0  0  0  0  0  0  0  0  0  0  0  0
   -1.7582    1.2889    0.1029 C   0  0  0  0  0  0  0  0  0  0  0  0
   -3.0888    1.5735   -0.2076 C   0  0  0  0  0  0  0  0  0  0  0  0
   -4.0830    0.6321    0.0522 C   0  0  0  0  0  0  0  0  0  0  0  0
   -3.7474   -0.5953    0.6207 C   0  0  0  0  0  0  0  0  0  0  0  0
   -2.4173   -0.8817    0.9319 C   0  0  0  0  0  0  0  0  0  0  0  0
    2.3580    1.5070   -0.5408 H   0  0  0  0  0  0  0  0  0  0  0  0
    3.6041    0.5732   -1.3953 H   0  0  0  0  0  0  0  0  0  0  0  0
    4.0525    1.6542   -0.0656 H   0  0  0  0  0  0  0  0  0  0  0  0
    2.7956    0.2148    1.5429 H   0  0  0  0  0  0  0  0  0  0  0  0
    4.1195   -0.6307    0.7625 H   0  0  0  0  0  0  0  0  0  0  0  0
    2.1635   -2.0806    0.8679 H   0  0  0  0  0  0  0  0  0  0  0  0
    2.6122   -1.7541   -0.7975 H   0  0  0  0  0  0  0  0  0  0  0  0
    0.2023   -1.7356   -0.5600 H   0  0  0  0  0  0  0  0  0  0  0  0
    0.7522   -0.1450   -1.0416 H   0  0  0  0  0  0  0  0  0  0  0  0
    0.5253    0.6661    1.3326 H   0  0  0  0  0  0  0  0  0  0  0  0
    0.0730   -0.9462    1.8506 H   0  0  0  0  0  0  0  0  0  0  0  0
   -0.9920    2.0311   -0.1093 H   0  0  0  0  0  0  0  0  0  0  0  0
   -3.3492    2.5296   -0.6538 H   0  0  0  0  0  0  0  0  0  0  0  0
   -5.1187    0.8540   -0.1903 H   0  0  0  0  0  0  0  0  0  0  0  0
   -4.5217   -1.3312    0.8205 H   0  0  0  0  0  0  0  0  0  0  0  0
   -2.1697   -1.8455    1.3707 H   0  0  0  0  0  0  0  0  0  0  0  0
  1  2  1  0
  2  3  1  0
  3  4  1  0
  4  5  1  0
  5  6  1  0
  6  7  2  0
  7  8  1  0
  8  9  2  0
  9 10  1  0
 10 11  2  0
 11  6  1  0
  1 12  1  0
  1 13  1  0
  1 14  1  0
  2 15  1  0
  2 16  1  0
  3 17  1  0
  3 18  1  0
  4 19  1  0
  4 20  1  0
  5 21  1  0
  5 22  1  0
  7 23  1  0
  8 24  1  0
  9 25  1  0
 10 26  1  0
 11 27  1  0
M  END

$$$$

     RDKit          3D

  9  8  0  0  0  0  0  0  0  0999 V2000
   -0.9670    0.5851    0.1130 C   0  0  0  0  0  0  0  0  0  0  0  0
    0.1634   -0.1781   -0.4955 C   0  0  0  0  0  0  0  0  0  0  0  0
    1.1980   -0.6688    0.1977 C   0  0  0  0  0  0  0  0  0  0  0  0
   -0.8534    0.6988    1.1957 H   0  0  0  0  0  0  0  0  0  0  0  0
   -1.9120    0.0679   -0.0790 H   0  0  0  0  0  0  0  0  0  0  0  0
   -1.0243    1.5835   -0.3312 H   0  0  0  0  0  0  0  0  0  0  0  0
    0.1245   -0.3343   -1.5713 H   0  0  0  0  0  0  0  0  0  0  0  0
    1.2795   -0.5377    1.2723 H   0  0  0  0  0  0  0  0  0  0  0  0
    1.9913   -1.2165   -0.3018 H   0  0  0  0  0  0  0  0  0  0  0  0
  1  2  1  0
  2  3  2  3
  1  4  1  0
  1  5  1  0
  1  6  1  0
  2  7  1  0
  3  8  1  0
  3  9  1  0
M  END

$$$$

     RDKit          3D

  6  5  0  0  0  0  0  0  0  0999 V2000
    0.6638   -0.0121    0.0732 C   0  0  0  0  0  0  0  0  0  0  0  0
   -0.6638    0.0121   -0.0732 C   0  0  0  0  0  0  0  0  0  0  0  0
    1.1936   -0.9478    0.2218 H   0  0  0  0  0  0  0  0  0  0  0  0
    1.2467    0.9031    0.0472 H   0  0  0  0  0  0  0  0  0  0  0  0
   -1.2467   -0.9031   -0.0472 H   0  0  0  0  0  0  0  0  0  0  0  0
   -1.1936    0.9478   -0.2218 H   0  0  0  0  0  0  0  0  0  0  0  0
  1  2  2  3
  1  3  1  0
  1  4  1  0
  2  5  1  0
  2  6  1  0
M  END

$$$$

     RDKit          3D

  8  7  0  0  0  0  0  0  0  0999 V2000
   -0.7841   -0.0944   -0.0075 C   0  0  0  0  0  0  0  0  0  0  0  0
    0.6983    0.1890    0.1172 C   0  0  0  0  0  0  0  0  0  0  0  0
    1.6205   -0.8017   -1.0337 Cl  0  0  0  0  0  0  0  0  0  0  0  0
   -1.3464    0.5188    0.7038 H   0  0  0  0  0  0  0  0  0  0  0  0
   -1.0061   -1.1454    0.2048 H   0  0  0  0  0  0  0  0  0  0  0  0
   -1.1488    0.1372   -1.0136 H   0  0  0  0  0  0  0  0  0  0  0  0
    1.0547   -0.0440    1.1245 H   0  0  0  0  0  0  0  0  0  0  0  0
    0.9118    1.2403   -0.0956 H   0  0  0  0  0  0  0  0  0  0  0  0
  1  2  1  0
  2  3  1  0
  1  4  1  0
  1  5  1  0
  1  6  1  0
  2  7  1  0
  2  8  1  0
M  END

$$$$
