
     RDKit          3D

  8  7  0  0  0  0  0  0  0  0999 V2000
   -0.7873    0.0854    0.0357 C   0  0  0  0  0  0  0  0  0  0  0  0
    0.7052   -0.2069    0.0355 C   0  0  0  0  0  0  0  0  0  0  0  0
    1.5935    1.1256   -0.7447 Cl  0  0  0  0  0  0  0  0  0  0  0  0
   -1.3313   -0.7504    0.5238 H   0  0  0  0  0  0  0  0  0  0  0  0
   -1.1550    0.1929   -1.0067 H   0  0  0  0  0  0  0  0  0  0  0  0
   -0.9923    1.0225    0.5955 H   0  0  0  0  0  0  0  0  0  0  0  0
    0.9024   -1.1485   -0.5189 H   0  0  0  0  0  0  0  0  0  0  0  0
    1.0648   -0.3206    1.0799 H   0  0  0  0  0  0  0  0  0  0  0  0
  1  2  1  0
  2  3  1  0
  1  4  1  0
  1  5  1  0
  1  6  1  0
  2  7  1  0
  2  8  1  0
M  END
