
     RDKit          3D

 27 27  0  0  0  0  0  0  0  0999 V2000
   -4.5503   -0.1172    0.3252 C   0  0  0  0  0  0  0  0  0  0  0  0
   -3.1626    0.1576   -0.2468 C   0  0  0  0  0  0  0  0  0  0  0  0
   -2.0649   -0.2614    0.7377 C   0  0  0  0  0  0  0  0  0  0  0  0
   -0.6725    0.0162    0.1593 C   0  0  0  0  0  0  0  0  0  0  0  0
    0.4258   -0.4023    1.1424 C   0  0  0  0  0  0  0  0  0  0  0  0
    1.7875   -0.1250    0.5638 C   0  0  0  0  0  0  0  0  0  0  0  0
    2.4337   -1.0928   -0.2236 C   0  0  0  0  0  0  0  0  0  0  0  0
    3.6843   -0.8213   -0.7874 C   0  0  0  0  0  0  0  0  0  0  0  0
    4.2930    0.4193   -0.5777 C   0  0  0  0  0  0  0  0  0  0  0  0
    3.6502    1.3921    0.1928 C   0  0  0  0  0  0  0  0  0  0  0  0
    2.3995    1.1248    0.7585 C   0  0  0  0  0  0  0  0  0  0  0  0
   -5.3232    0.1956   -0.4081 H   0  0  0  0  0  0  0  0  0  0  0  0
   -4.6748   -1.2016    0.5317 H   0  0  0  0  0  0  0  0  0  0  0  0
   -4.7004    0.4552    1.2654 H   0  0  0  0  0  0  0  0  0  0  0  0
   -3.0481   -0.4060   -1.1984 H   0  0  0  0  0  0  0  0  0  0  0  0
   -3.0735    1.2437   -0.4678 H   0  0  0  0  0  0  0  0  0  0  0  0
   -2.1878    0.3036    1.6881 H   0  0  0  0  0  0  0  0  0  0  0  0
   -2.1624   -1.3478    0.9567 H   0  0  0  0  0  0  0  0  0  0  0  0
   -0.5494   -0.5487   -0.7914 H   0  0  0  0  0  0  0  0  0  0  0  0
   -0.5748    1.1026   -0.0601 H   0  0  0  0  0  0  0  0  0  0  0  0
    0.3045    0.1521    2.0992 H   0  0  0  0  0  0  0  0  0  0  0  0
    0.3298   -1.4861    1.3737 H   0  0  0  0  0  0  0  0  0  0  0  0
    1.9687   -2.0546   -0.4013 H   0  0  0  0  0  0  0  0  0  0  0  0
    4.1801   -1.5715   -1.3898 H   0  0  0  0  0  0  0  0  0  0  0  0
    5.2604    0.6282   -1.0159 H   0  0  0  0  0  0  0  0  0  0  0  0
    4.1195    2.3548    0.3490 H   0  0  0  0  0  0  0  0  0  0  0  0
    1.9078    1.8904    1.3458 H   0  0  0  0  0  0  0  0  0  0  0  0
  1  2  1  0
  2  3  1  0
  3  4  1  0
  4  5  1  0
  5  6  1  0
  6  7  2  0
  7  8  1  0
  8  9  2  0
  9 10  1  0
 10 11  2  0
 11  6  1  0
  1 12  1  0
  1 13  1  0
  1 14  1  0
  2 15  1  0
  2 16  1  0
  3 17  1  0
  3 18  1  0
  4 19  1  0
  4 20  1  0
  5 21  1  0
  5 22  1  0
  7 23  1  0
  8 24  1  0
  9 25  1  0
 10 26  1  0
 11 27  1  0
M  END
