
     RDKit          3D

  9  8  0  0  0  0  0  0  0  0999 V2000
    0.9337   -0.1765   -0.6020 C   0  0  0  0  0  0  0  0  0  0  0  0
   -0.1242    0.5353    0.1826 C   0  0  0  0  0  0  0  0  0  0  0  0
   -1.1707   -0.1230    0.6859 C   0  0  0  0  0  0  0  0  0  0  0  0
    1.7093    0.5479   -0.9276 H   0  0  0  0  0  0  0  0  0  0  0  0
    1.4124   -0.9563    0.0273 H   0  0  0  0  0  0  0  0  0  0  0  0
    0.4851   -0.6504   -1.5006 H   0  0  0  0  0  0  0  0  0  0  0  0
   -0.0381    1.6057    0.3446 H   0  0  0  0  0  0  0  0  0  0  0  0
   -1.9272    0.4108    1.2519 H   0  0  0  0  0  0  0  0  0  0  0  0
   -1.2802   -1.1934    0.5380 H   0  0  0  0  0  0  0  0  0  0  0  0
  1  2  1  0
  2  3  2  3
  1  4  1  0
  1  5  1  0
  1  6  1  0
  2  7  1  0
  3  8  1  0
  3  9  1  0
M  END
