
     RDKit          3D

  6  5  0  0  0  0  0  0  0  0999 V2000
   -0.2337    0.1997   -0.5902 C   0  0  0  0  0  0  0  0  0  0  0  0
    0.2337   -0.1997    0.5902 C   0  0  0  0  0  0  0  0  0  0  0  0
   -0.9133    1.0435   -0.6519 H   0  0  0  0  0  0  0  0  0  0  0  0
    0.0619   -0.3161   -1.4981 H   0  0  0  0  0  0  0  0  0  0  0  0
    0.9133   -1.0435    0.6519 H   0  0  0  0  0  0  0  0  0  0  0  0
   -0.0619    0.3161    1.4981 H   0  0  0  0  0  0  0  0  0  0  0  0
  1  2  2  3
  1  3  1  0
  1  4  1  0
  2  5  1  0
  2  6  1  0
M  END
